examples/freecad_request.json
{
  "action": "create_parametric_block",
  "parameters": {
    "length": 20,
    "width": 30,
    "height": 5,
    "hole_diameter": 5
  }
}

examples/sample_model_output.json
{
  "action": "generate_spice_netlist",
  "parameters": {
    "circuit_type": "RC_low_pass",
    "resistance": "1k",
    "capacitance": "10uF"
  }
}

examples/ltspice_netlist_example.cir
* RC Low Pass Filter
Vin in 0 AC 1
R1 in out 1k
C1 out 0 10uF
.ac dec 10 1 10000
.end
